
#######################################################################
#
#                 Cambridge Crystallographic Data Centre
#                                CCDC 
#
#######################################################################
#
# If this CIF has been generated from an entry in the Cambridge 
# Structural Database, then it will include bibliographic, chemical, 
# crystal, experimental, refinement or atomic coordinate data resulting 
# from the CCDC's data processing and validation procedures.
#
#######################################################################

data_INOVAL
_symmetry_cell_setting           triclinic
_symmetry_space_group_name_H-M   'P -1'
_symmetry_Int_Tables_number      2
_space_group_name_Hall           '-P 1'
loop_
_symmetry_equiv_pos_site_id
_symmetry_equiv_pos_as_xyz
1 x,y,z
2 -x,-y,-z
_cell_length_a                   10.9964(7)
_cell_length_b                   14.8813(9)
_cell_length_c                   16.6887(11)
_cell_angle_alpha                80.719(2)
_cell_angle_beta                 72.580(2)
_cell_angle_gamma                70.917(2)
_cell_volume                     2456.41
loop_
_atom_site_label
_atom_site_type_symbol
_atom_site_fract_x
_atom_site_fract_y
_atom_site_fract_z
Fe1 Fe 0.36730(2) 0.14887(2) 0.08332(2)
Cl1 Cl 0.31269(4) 0.06724(3) 0.20984(2)
Cl2 Cl 0.59618(4) 0.11307(3) 0.02896(2)
Cl3 Cl 0.27520(4) 0.30968(3) 0.06485(2)
O1 O 0.28960(12) 0.09751(8) 0.00872(7)
H1 H 0.336538 0.039290 -0.002394
H2 H 0.210(2) 0.1044(15) 0.0252(13)
Fe1 Fe 0.63270(2) 0.85113(2) 0.91668(2)
Cl1 Cl 0.68731(4) 0.93276(3) 0.79016(2)
Cl2 Cl 0.40382(4) 0.88693(3) 0.97104(2)
Cl3 Cl 0.72480(4) 0.69032(3) 0.93515(2)
O1 O 0.71040(12) 0.90249(8) 0.99128(7)
H1 H 0.663462 0.960710 1.002394
H2 H 0.790(2) 0.8956(15) 0.9748(13)
Fe2 Fe 0.38225(2) 0.46014(2) 0.49427(2)
Cl4 Cl 0.39072(4) 0.30842(3) 0.54187(2)
Cl5 Cl 0.40572(4) 0.53975(3) 0.59926(2)
Cl6 Cl 0.22252(4) 0.56856(3) 0.44005(2)
Fe2A Fe 0.61775(2) 0.53986(2) 0.50573(2)
Cl4A Cl 0.60928(4) 0.69158(3) 0.45813(2)
Cl5A Cl 0.59428(4) 0.46025(3) 0.40074(2)
Cl6A Cl 0.77748(4) 0.43144(3) 0.55995(2)
O2 O 1.02279(10) 0.11640(8) 0.05200(7)
C1 C 1.00983(18) 0.26342(13) -0.03141(11)
H3 H 1.040903 0.228595 -0.082348
H4 H 1.086638 0.269710 -0.017010
H5 H 0.950228 0.326917 -0.041474
C2 C 0.93549(16) 0.20959(12) 0.04035(11)
H6 H 0.905869 0.243390 0.092468
H7 H 0.855654 0.205144 0.027265
C3 C 0.95747(17) 0.05816(13) 0.11500(10)
H8 H 0.883540 0.049411 0.097873
H9 H 0.919636 0.089283 0.168872
C4 C 1.05710(19) -0.03698(13) 0.12607(12)
H10 H 1.094482 -0.067231 0.072473
H11 H 1.012746 -0.077787 0.168766
H12 H 1.128996 -0.027923 0.144177
O2 O -0.02279(10) 0.88360(8) 0.94800(7)
C1 C -0.00983(18) 0.73658(13) 1.03141(11)
H3 H -0.040903 0.771405 1.082348
H4 H -0.086638 0.730290 1.017010
H5 H 0.049772 0.673083 1.041474
C2 C 0.06451(16) 0.79041(12) 0.95965(11)
H6 H 0.094131 0.756610 0.907532
H7 H 0.144346 0.794856 0.972735
C3 C 0.04253(17) 0.94184(13) 0.88500(10)
H8 H 0.116460 0.950589 0.902127
H9 H 0.080364 0.910717 0.831128
C4 C -0.05710(19) 1.03698(13) 0.87393(12)
H10 H -0.094482 1.067231 0.927527
H11 H -0.012746 1.077787 0.831234
H12 H -0.128996 1.027923 0.855823
N1 N 0.50886(12) 0.26906(8) 0.78265(7)
C5 C 0.62133(15) 0.25309(11) 0.70178(9)
H13 H 0.585002 0.246105 0.656318
H14 H 0.651859 0.310731 0.686115
C6 C 0.74113(15) 0.16740(11) 0.70565(10)
H15 H 0.711015 0.110425 0.728982
H16 H 0.788353 0.178382 0.743483
C7 C 0.83631(17) 0.14982(12) 0.61805(11)
H17 H 0.786214 0.146343 0.578827
H18 H 0.873735 0.203988 0.597477
C8 C 0.94975(18) 0.05794(14) 0.61848(13)
H19 H 1.007867 0.048348 0.561227
H20 H 0.912994 0.004167 0.638771
H21 H 1.001477 0.062086 0.655705
C9 C 0.55723(15) 0.27939(11) 0.85584(9)
H22 H 0.484865 0.278858 0.908092
H23 H 0.633558 0.222610 0.860738
C10 C 0.60019(16) 0.36739(11) 0.85148(10)
H24 H 0.523176 0.425300 0.852191
H25 H 0.670113 0.371192 0.798565
C11 C 0.65438(17) 0.36159(12) 0.92708(10)
H26 H 0.587418 0.350120 0.979269
H27 H 0.736008 0.306642 0.922848
C12 C 0.68714(18) 0.45147(13) 0.93321(11)
H28 H 0.757577 0.461032 0.883354
H29 H 0.717837 0.444948 0.983848
H30 H 0.607146 0.506378 0.936378
C13 C 0.40438(14) 0.35915(10) 0.76340(9)
H31 H 0.377262 0.349352 0.714775
H32 H 0.445969 0.411473 0.746080
C14 C 0.27955(15) 0.39089(11) 0.83505(9)
H33 H 0.304884 0.385295 0.888199
H34 H 0.222537 0.349130 0.842097
C15 C 0.20217(16) 0.49372(11) 0.81643(10)
H35 H 0.259503 0.535102 0.809989
H36 H 0.179122 0.499070 0.762530
C16 C 0.07513(17) 0.52838(13) 0.88560(11)
H37 H 0.031231 0.595744 0.872727
H38 H 0.097147 0.520972 0.939485
H39 H 0.015023 0.490786 0.889228
C17 C 0.45221(15) 0.18500(10) 0.80948(9)
H40 H 0.519387 0.130852 0.829614
H41 H 0.372712 0.202615 0.857835
C18 C 0.41262(16) 0.15114(11) 0.74292(9)
H42 H 0.493475 0.120670 0.699379
H43 H 0.356620 0.206204 0.715371
C19 C 0.33502(16) 0.07973(11) 0.78349(9)
H44 H 0.386190 0.030019 0.817998
H45 H 0.248839 0.113006 0.821490
C20 C 0.30853(19) 0.03260(13) 0.71911(11)
H46 H 0.393557 -0.003726 0.683478
H47 H 0.259283 0.081562 0.684068
H48 H 0.255613 -0.010528 0.748153
N1 N 0.49114(12) 0.73094(8) 0.21735(7)
C5 C 0.37867(15) 0.74691(11) 0.29822(9)
H13 H 0.414998 0.753895 0.343682
H14 H 0.348141 0.689269 0.313885
C6 C 0.25887(15) 0.83260(11) 0.29435(10)
H15 H 0.288985 0.889575 0.271018
H16 H 0.211647 0.821618 0.256517
C7 C 0.16369(17) 0.85018(12) 0.38195(11)
H17 H 0.213786 0.853657 0.421173
H18 H 0.126265 0.796012 0.402523
C8 C 0.05025(18) 0.94206(14) 0.38152(13)
H19 H -0.007867 0.951652 0.438773
H20 H 0.087006 0.995833 0.361229
H21 H -0.001477 0.937914 0.344295
C9 C 0.44277(15) 0.72061(11) 0.14416(9)
H22 H 0.515135 0.721142 0.091908
H23 H 0.366442 0.777390 0.139262
C10 C 0.39981(16) 0.63261(11) 0.14852(10)
H24 H 0.476824 0.574700 0.147809
H25 H 0.329887 0.628808 0.201435
C11 C 0.34562(17) 0.63841(12) 0.07292(10)
H26 H 0.412582 0.649880 0.020731
H27 H 0.263992 0.693358 0.077152
C12 C 0.31286(18) 0.54853(13) 0.06679(11)
H28 H 0.242423 0.538968 0.116646
H29 H 0.282163 0.555052 0.016152
H30 H 0.392854 0.493622 0.063622
C13 C 0.59562(14) 0.64085(10) 0.23660(9)
H31 H 0.622738 0.650648 0.285225
H32 H 0.554031 0.588527 0.253920
C14 C 0.72045(15) 0.60911(11) 0.16495(9)
H33 H 0.695116 0.614705 0.111801
H34 H 0.777463 0.650870 0.157903
C15 C 0.79783(16) 0.50628(11) 0.18357(10)
H35 H 0.740497 0.464898 0.190011
H36 H 0.820878 0.500930 0.237470
C16 C 0.92487(17) 0.47162(13) 0.11440(11)
H37 H 0.968769 0.404256 0.127273
H38 H 0.902853 0.479028 0.060515
H39 H 0.984977 0.509214 0.110772
C17 C 0.54779(15) 0.81500(10) 0.19052(9)
H40 H 0.480613 0.869148 0.170386
H41 H 0.627288 0.797385 0.142165
C18 C 0.58738(16) 0.84886(11) 0.25708(9)
H42 H 0.506525 0.879330 0.300621
H43 H 0.643380 0.793796 0.284629
C19 C 0.66498(16) 0.92027(11) 0.21651(9)
H44 H 0.613810 0.969981 0.182002
H45 H 0.751161 0.886994 0.178510
C20 C 0.69147(19) 0.96740(13) 0.28089(11)
H46 H 0.606443 1.003726 0.316522
H47 H 0.740717 0.918438 0.315932
H48 H 0.744387 1.010528 0.251847
N2 N 0.15190(12) 0.31988(9) 0.34736(7)
C21 C 0.38313(15) 0.34368(12) 0.31245(9)
H49 H 0.421078 0.290981 0.350672
H50 H 0.337270 0.401287 0.344556
C22 C 0.17625(15) 0.25785(11) 0.42592(9)
H51 H 0.228413 0.283683 0.450464
H52 H 0.089033 0.262764 0.467597
C23 C 0.24891(17) 0.15359(11) 0.41288(10)
H53 H 0.332412 0.147482 0.367264
H54 H 0.192446 0.124282 0.395799
C24 C 0.28155(17) 0.10167(12) 0.49380(10)
H55 H 0.343425 0.128110 0.508275
H56 H 0.198632 0.112669 0.540298
C25 C 0.34486(18) -0.00481(12) 0.48532(11)
H57 H 0.427723 -0.015985 0.439907
H58 H 0.283039 -0.031465 0.472244
H59 H 0.364678 -0.035660 0.538350
C26 C 0.07204(15) 0.28417(11) 0.30573(9)
H60 H 0.047165 0.332095 0.260319
H61 H 0.131010 0.224804 0.278938
C27 C -0.05433(15) 0.26418(12) 0.36301(10)
H62 H -0.114226 0.322120 0.391741
H63 H -0.031389 0.212755 0.406493
C28 C -0.12453(17) 0.23428(12) 0.31050(11)
H64 H -0.161677 0.290008 0.274516
H65 H -0.058616 0.185081 0.273121
C29 C -0.23619(18) 0.19500(13) 0.36463(12)
H66 H -0.277205 0.175440 0.328376
H67 H -0.303605 0.244361 0.400074
H68 H -0.199916 0.139834 0.400432
C30 C 0.07504(15) 0.41986(11) 0.37515(9)
H69 H 0.115778 0.433789 0.415373
H70 H -0.017471 0.420653 0.405941
C31 C 0.06902(16) 0.49974(11) 0.30566(10)
H71 H 0.047781 0.480948 0.258361
H72 H 0.156651 0.512219 0.284242
C32 C -0.03844(17) 0.58969(12) 0.34079(11)
H73 H -0.127269 0.580040 0.352781
H74 H -0.026401 0.600461 0.394563
C33 C -0.0342(2) 0.67710(14) 0.28077(14)
H75 H -0.043489 0.666167 0.226845
H76 H 0.051197 0.689685 0.271825
H77 H -0.107428 0.732083 0.304776
C34 C 0.28279(14) 0.31746(11) 0.28174(9)
H78 H 0.263311 0.361929 0.233130
H79 H 0.324266 0.252547 0.261504
C35 C 0.49522(16) 0.36261(13) 0.23880(10)
H80 H 0.456925 0.419208 0.204034
H81 H 0.559033 0.378286 0.261258
C36 C 0.57070(19) 0.28122(17) 0.18302(13)
H82 H 0.648035 0.295860 0.142260
H83 H 0.512128 0.271883 0.152956
H84 H 0.601075 0.222930 0.217539
N2 N 0.84810(12) 0.68012(9) 0.65264(7)
C21 C 0.61687(15) 0.65632(12) 0.68755(9)
H49 H 0.578922 0.709019 0.649328
H50 H 0.662730 0.598713 0.655444
C22 C 0.82375(15) 0.74215(11) 0.57408(9)
H51 H 0.771587 0.716317 0.549536
H52 H 0.910967 0.737236 0.532403
C23 C 0.75109(17) 0.84641(11) 0.58712(10)
H53 H 0.667588 0.852518 0.632736
H54 H 0.807554 0.875718 0.604201
C24 C 0.71845(17) 0.89833(12) 0.50620(10)
H55 H 0.656575 0.871890 0.491725
H56 H 0.801368 0.887331 0.459702
C25 C 0.65514(18) 1.00481(12) 0.51468(11)
H57 H 0.572277 1.015985 0.560093
H58 H 0.716961 1.031465 0.527756
H59 H 0.635322 1.035660 0.461650
C26 C 0.92796(15) 0.71583(11) 0.69427(9)
H60 H 0.952835 0.667905 0.739681
H61 H 0.868990 0.775196 0.721062
C27 C 1.05433(15) 0.73582(12) 0.63699(10)
H62 H 1.114226 0.677880 0.608259
H63 H 1.031389 0.787245 0.593507
C28 C 1.12453(17) 0.76572(12) 0.68950(11)
H64 H 1.161677 0.709992 0.725484
H65 H 1.058616 0.814919 0.726879
C29 C 1.23619(18) 0.80500(13) 0.63537(12)
H66 H 1.277205 0.824560 0.671624
H67 H 1.303605 0.755639 0.599926
H68 H 1.199916 0.860166 0.599568
C30 C 0.92496(15) 0.58014(11) 0.62485(9)
H69 H 0.884222 0.566211 0.584627
H70 H 1.017471 0.579347 0.594059
C31 C 0.93098(16) 0.50026(11) 0.69434(10)
H71 H 0.952219 0.519052 0.741639
H72 H 0.843349 0.487781 0.715758
C32 C 1.03844(17) 0.41031(12) 0.65921(11)
H73 H 1.127269 0.419960 0.647219
H74 H 1.026401 0.399539 0.605437
C33 C 1.0342(2) 0.32290(14) 0.71923(14)
H75 H 1.043489 0.333833 0.773155
H76 H 0.948803 0.310315 0.728175
H77 H 1.107428 0.267917 0.695224
C34 C 0.71721(14) 0.68254(11) 0.71826(9)
H78 H 0.736689 0.638071 0.766870
H79 H 0.675734 0.747453 0.738496
C35 C 0.50478(16) 0.63739(13) 0.76120(10)
H80 H 0.543075 0.580792 0.795966
H81 H 0.440967 0.621714 0.738742
C36 C 0.42930(19) 0.71878(17) 0.81698(13)
H82 H 0.351965 0.704140 0.857740
H83 H 0.487872 0.728117 0.847044
H84 H 0.398925 0.777070 0.782461

#END
