
#######################################################################
#
#                 Cambridge Crystallographic Data Centre
#                                CCDC 
#
#######################################################################
#
# If this CIF has been generated from an entry in the Cambridge 
# Structural Database, then it will include bibliographic, chemical, 
# crystal, experimental, refinement or atomic coordinate data resulting 
# from the CCDC's data processing and validation procedures.
#
#######################################################################

data_BACZUB
_symmetry_cell_setting           triclinic
_symmetry_space_group_name_H-M   'P -1'
_symmetry_Int_Tables_number      2
_space_group_name_Hall           '-P 1'
loop_
_symmetry_equiv_pos_site_id
_symmetry_equiv_pos_as_xyz
1 x,y,z
2 -x,-y,-z
_cell_length_a                   7.378(2)
_cell_length_b                   9.7490(10)
_cell_length_c                   10.942(2)
_cell_angle_alpha                91.340(10)
_cell_angle_beta                 96.05(2)
_cell_angle_gamma                107.230(10)
_cell_volume                     746.295
loop_
_atom_site_label
_atom_site_type_symbol
_atom_site_fract_x
_atom_site_fract_y
_atom_site_fract_z
Hg1 Hg 0.06316(6) 0.26845(5) 0.49337(4)
Fe1 Fe 0.1366(2) 0.28772(15) 0.16436(14)
Cl1 Cl 0.1713(5) 0.2942(3) 0.6999(3)
C1 C 0.355(2) 0.4725(14) 0.1444(14)
H1 H 0.3479 0.5656 0.1563
C2 C 0.300(3) 0.393(2) 0.0336(15)
H2 H 0.2505 0.4211 -0.0399
C3 C 0.332(3) 0.263(2) 0.053(2)
H3 H 0.31 0.1875 -0.006
C4 C 0.409(2) 0.263(2) 0.183(2)
H4 H 0.4427 0.189 0.2214
C5 C 0.4205(16) 0.3973(19) 0.2356(15)
H5 H 0.4643 0.43 0.317
C6 C -0.0298(15) 0.2421(13) 0.3094(11)
C7 C -0.0838(18) 0.3391(17) 0.2342(12)
H6 H -0.0799 0.4316 0.2601
C8 C -0.1465(19) 0.2774(17) 0.1107(14)
H7 H -0.19 0.3203 0.0434
C9 C -0.1281(18) 0.1392(16) 0.1137(14)
H8 H -0.1586 0.0726 0.0467
C10 C -0.0556(18) 0.1150(14) 0.2347(11)
H9 H -0.0299 0.0316 0.26
Hg1 Hg 0.93684(6) 0.73155(5) 0.50663(4)
Fe1 Fe 0.8634(2) 0.71228(15) 0.83564(14)
Cl1 Cl 0.8287(5) 0.7058(3) 0.3001(3)
C1 C 0.645(2) 0.5275(14) 0.8556(14)
H1 H 0.6521 0.4344 0.8437
C2 C 0.700(3) 0.607(2) 0.9664(15)
H2 H 0.7495 0.5789 1.0399
C3 C 0.668(3) 0.737(2) 0.947(2)
H3 H 0.69 0.8125 1.006
C4 C 0.591(2) 0.737(2) 0.817(2)
H4 H 0.5573 0.811 0.7786
C5 C 0.5795(16) 0.6027(19) 0.7644(15)
H5 H 0.5357 0.57 0.683
C6 C 1.0298(15) 0.7579(13) 0.6906(11)
C7 C 1.0838(18) 0.6609(17) 0.7658(12)
H6 H 1.0799 0.5684 0.7399
C8 C 1.1465(19) 0.7226(17) 0.8893(14)
H7 H 1.19 0.6797 0.9566
C9 C 1.1281(18) 0.8608(16) 0.8863(14)
H8 H 1.1586 0.9274 0.9533
C10 C 1.0556(18) 0.8850(14) 0.7653(11)
H9 H 1.0299 0.9684 0.74
Hg2 Hg 0.45011(8) -0.16227(5) 0.37580(4)
Cl2 Cl 0.7328(3) -0.0248(3) 0.5287(3)
Cl3 Cl 0.4277(5) -0.1130(4) 0.1667(3)
Cl4 Cl 0.2986(5) -0.3799(3) 0.4704(3)
Hg2A Hg 0.54989(8) 0.16227(5) 0.62420(4)
Cl2A Cl 0.2672(3) 0.0248(3) 0.4713(3)
Cl3A Cl 0.5723(5) 0.1130(4) 0.8333(3)
Cl4A Cl 0.7014(5) 0.3799(3) 0.5296(3)
Hg2 Hg 0.45011(8) 0.83773(5) 0.37580(4)
Cl2 Cl 0.7328(3) 0.9752(3) 0.5287(3)
Cl3 Cl 0.4277(5) 0.8870(4) 0.1667(3)
Cl4 Cl 0.2986(5) 0.6201(3) 0.4704(3)
Hg2A Hg 0.54989(8) 1.16227(5) 0.62420(4)
Cl2A Cl 0.2672(3) 1.0248(3) 0.4713(3)
Cl3A Cl 0.5723(5) 1.1130(4) 0.8333(3)
Cl4A Cl 0.7014(5) 1.3799(3) 0.5296(3)

#END
